Circuit: * C:\Users\Anders\Documents\Studium\Semester_5\Projekt_5\Fachbericht\graphics\Anemometer\Draft3.asc

V1: Missing value, assumed 0V @ DC

Date: Thu Dec 13 01:21:46 2018
Total elapsed time: 0.080 seconds.

tnom = 27
temp = 27
method = trap
totiter = 690
traniter = 0
tranpoints = 0
accept = 0
rejected = 0
matrix size = 75
fillins = 38
solver = Normal
Matrix Compiler1: 6.38 KB object code size  1.9/0.7/[0.4]
Matrix Compiler2: 6.77 KB object code size  0.6/0.9/[0.4]

